data_image0
_chemical_formula_structural       Li56La24Zr16O96
_chemical_formula_sum              "Li56 La24 Zr16 O96"
_cell_length_a       12.977995344735815
_cell_length_b       13.044568177075897
_cell_length_c       13.040718069848664
_cell_angle_alpha    89.96872378287719
_cell_angle_beta     89.82443280671593
_cell_angle_gamma    89.82682781522041

_space_group_name_H-M_alt    "P 1"
_space_group_IT_number       1

loop_
  _space_group_symop_operation_xyz
  'x, y, z'

loop_
  _atom_site_type_symbol
  _atom_site_label
  _atom_site_symmetry_multiplicity
  _atom_site_fract_x
  _atom_site_fract_y
  _atom_site_fract_z
  _atom_site_occupancy
  Li  Li1       1.0  0.2988464709038441  0.0863460434299281  0.41789341821350523  1.0000
  Li  Li2       1.0  0.7988469944271711  0.5863604104550885  0.9179081184587188  1.0000
  Li  Li3       1.0  0.9985579306214937  0.75030791993906  0.13248367422908583  1.0000
  Li  Li4       1.0  0.4985494019596407  0.25030448010418327  0.6324825723086294  1.0000
  Li  Li5       1.0  0.24866095116370857  0.38089182772914437  0.0018393148710041133  1.0000
  Li  Li6       1.0  0.7486568085670336  0.8808958110454754  0.5018472582207809  1.0000
  Li  Li7       1.0  0.3741416324053184  0.9998398684904861  0.2551995452151167  1.0000
  Li  Li8       1.0  0.8741362996267396  0.49984981022712366  0.7551911109090248  1.0000
  Li  Li9       1.0  0.12410051196768111  0.003558349019400013  0.7514577188515014  1.0000
  Li  Li10      1.0  0.624099570452287  0.5035572185728234  0.2514609098946761  1.0000
  Li  Li11      1.0  0.6803486157896599  0.5879679060644751  0.08166348480318508  1.0000
  Li  Li12      1.0  0.42619975084993394  0.6049658900432745  0.8143241580017793  1.0000
  Li  Li13      1.0  0.8239040010406878  0.1611654701436853  0.960168212138832  1.0000
  Li  Li14      1.0  0.4013559565026628  0.3216055940394425  0.07543695376509976  1.0000
  Li  Li15      1.0  0.31877643282562856  0.5673031977557147  0.6514876167131832  1.0000
  Li  Li16      1.0  0.1742968496987714  0.43690112774806034  0.1656281831640905  1.0000
  Li  Li17      1.0  0.5489544120121231  0.6662026835500899  0.33788223818843705  1.0000
  Li  Li18      1.0  0.44783054573371045  0.16625977331849512  0.1710481661844082  1.0000
  Li  Li19      1.0  0.06231724845023388  0.8323278725595563  0.6693279416328579  1.0000
  Li  Li20      1.0  0.07320994662219385  0.20912422221852428  0.4122794397718688  1.0000
  Li  Li21      1.0  0.8408010524370083  0.6800366346485851  0.07234148485138937  1.0000
  Li  Li22      1.0  0.43049784380062506  0.8300972731453766  0.33946062674249333  1.0000
  Li  Li23      1.0  0.1763667139447303  0.5630325377715264  0.3569306799028626  1.0000
  Li  Li24      1.0  0.3241333438614945  0.44418009951637166  0.8404625286047467  1.0000
  Li  Li25      1.0  0.15121970625535633  0.8239413929414685  0.0734466050684118  1.0000
  Li  Li26      1.0  0.9024374498725946  0.3120405712212552  0.41925142271472815  1.0000
  Li  Li27      1.0  0.06884272017662557  0.4005078776297429  0.3186704370011127  1.0000
  Li  Li28      1.0  0.924229024811452  0.9143077578233603  0.1886130708891081  1.0000
  Li  Li29      1.0  0.5742624976090661  0.08890577369804219  0.6957944180923233  1.0000
  Li  Li30      1.0  0.19793092453278524  0.9193749870605549  0.9181620850979939  1.0000
  Li  Li31      1.0  0.8123059570065723  0.41788772339853825  0.5840845712858703  1.0000
  Li  Li32      1.0  0.5907893253666026  0.8208742634459315  0.43155879775702777  1.0000
  Li  Li33      1.0  0.15275690010998094  0.6676923924174962  0.5631847389347049  1.0000
  Li  Li34      1.0  0.18035266221897964  0.08797099760486611  0.5816578786245961  1.0000
  Li  Li35      1.0  0.9262021494457118  0.10495890622906338  0.3143209185618808  1.0000
  Li  Li36      1.0  0.3239222765076296  0.6611669105951522  0.4601637363400078  1.0000
  Li  Li37      1.0  0.9013576226080235  0.8216178083149142  0.5754343025063603  1.0000
  Li  Li38      1.0  0.8187725527188021  0.06730223990259329  0.15149235104270248  1.0000
  Li  Li39      1.0  0.674290559727879  0.9369056488789556  0.6656384169155389  1.0000
  Li  Li40      1.0  0.04894923354057073  0.1662020075794668  0.8378840476723163  1.0000
  Li  Li41      1.0  0.9478421139636788  0.666272177738021  0.6710371412663669  1.0000
  Li  Li42      1.0  0.5623082388402894  0.3323133304461519  0.1693268951505418  1.0000
  Li  Li43      1.0  0.5731925775989304  0.7091347317813025  0.9122850803839251  1.0000
  Li  Li44      1.0  0.34079342628182374  0.18003513243280755  0.5723333041605261  1.0000
  Li  Li45      1.0  0.9304903796892904  0.3301000373979625  0.8394566629584557  1.0000
  Li  Li46      1.0  0.676358522327544  0.06303871974653998  0.8569311130817397  1.0000
  Li  Li47      1.0  0.8241280276197274  0.9441786384881156  0.34046263243188496  1.0000
  Li  Li48      1.0  0.6512227240767929  0.3239357793331257  0.5734437084520403  1.0000
  Li  Li49      1.0  0.4024267821535084  0.8120377689156755  0.9192545388543686  1.0000
  Li  Li50      1.0  0.5688369251692408  0.900514956679793  0.8186758180904166  1.0000
  Li  Li51      1.0  0.424226291719338  0.4143025322736936  0.6886053467196632  1.0000
  Li  Li52      1.0  0.0742725213523389  0.5888876082332162  0.1957919006110763  1.0000
  Li  Li53      1.0  0.6979323786183593  0.41937587199264076  0.41816868562368475  1.0000
  Li  Li54      1.0  0.3123161581129146  0.9178831887854259  0.08409549756421508  1.0000
  Li  Li55      1.0  0.09077360903067773  0.3208687152358366  0.9315518940025662  1.0000
  Li  Li56      1.0  0.6527482187151974  0.16770267494123678  0.06319620415977928  1.0000
  La  La1       1.0  0.4985849985252587  0.25089727278689206  0.8749455529637263  1.0000
  La  La2       1.0  0.9985933849840638  0.7508924034124116  0.3749511016263987  1.0000
  La  La3       1.0  0.4983176454276673  0.7511911223099895  0.6315193957053383  1.0000
  La  La4       1.0  0.9983057711440764  0.2511896199457412  0.13151956714221005  1.0000
  La  La5       1.0  0.24739740272421332  0.8747220978810076  0.5037906812189556  1.0000
  La  La6       1.0  0.7474076811527032  0.3747249613529115  0.0037971852915169284  1.0000
  La  La7       1.0  0.7494046567194436  0.6333968464111158  0.5046866247522913  1.0000
  La  La8       1.0  0.2494041912851839  0.1333872052256795  0.004683941025470134  1.0000
  La  La9       1.0  0.8649309234142553  0.5012367633684819  0.25270613499525635  1.0000
  La  La10      1.0  0.3649203698377431  0.0012418408510999146  0.7527137551491873  1.0000
  La  La11      1.0  0.6320248863640746  0.5025322655643439  0.7520027230780544  1.0000
  La  La12      1.0  0.13202424130158502  0.002530507152118136  0.25199888438332974  1.0000
  La  La13      1.0  0.9974002292832036  0.2522262499925251  0.6262051714614667  1.0000
  La  La14      1.0  0.49739542178258045  0.7522311391186756  0.12620674352396977  1.0000
  La  La15      1.0  0.9994163078290037  0.7531600377429304  0.8849423723844916  1.0000
  La  La16      1.0  0.49941691425884555  0.2531539115649488  0.3849332485575719  1.0000
  La  La17      1.0  0.24863061879895332  0.6234287623764002  0.0024916887714271792  1.0000
  La  La18      1.0  0.7486260192008093  0.12342360912637862  0.5024834298394031  1.0000
  La  La19      1.0  0.7482972902984314  0.87994044544809  0.002735832460224313  1.0000
  La  La20      1.0  0.24828621322779268  0.3799452495981654  0.5027316575774381  1.0000
  La  La21      1.0  0.6149861496270218  0.0012358470042977702  0.2527581605607118  1.0000
  La  La22      1.0  0.11498048014923055  0.5012358013584789  0.752752901249375  1.0000
  La  La23      1.0  0.8819905099345298  0.0004216716873276899  0.7540683314252471  1.0000
  La  La24      1.0  0.38198509339982045  0.5004135173582143  0.2540717112661672  1.0000
  Zr  Zr1       1.0  0.7496239483848539  0.24625349789546822  0.7547171546010056  1.0000
  Zr  Zr2       1.0  0.7459453932096332  0.7538655945445677  0.2553361398658107  1.0000
  Zr  Zr3       1.0  0.24600703797999993  0.7496142388755911  0.7544368354132365  1.0000
  Zr  Zr4       1.0  0.25284499211220945  0.2512661737979633  0.2553817994996203  1.0000
  Zr  Zr5       1.0  0.4996004662869242  0.5031193517924578  0.9977924028052791  1.0000
  Zr  Zr6       1.0  0.4960243456404502  0.003830570179562434  0.5054145704729286  1.0000
  Zr  Zr7       1.0  0.9959659348352297  0.5029429134581284  0.5011924246873465  1.0000
  Zr  Zr8       1.0  0.002742885896429729  0.0038116799488119983  0.002888985107811035  1.0000
  Zr  Zr9       1.0  0.2496335801601931  0.7462465167160462  0.2547165726443945  1.0000
  Zr  Zr10      1.0  0.2459490037704187  0.25386726043033503  0.7553312251111864  1.0000
  Zr  Zr11      1.0  0.7459986071230079  0.2496160050258915  0.2544385661681035  1.0000
  Zr  Zr12      1.0  0.7528471308305197  0.7512566311675372  0.7553707859551273  1.0000
  Zr  Zr13      1.0  0.9996019946955136  0.0031150710091556537  0.4977851679351259  1.0000
  Zr  Zr14      1.0  0.9960043241881371  0.5038356310541915  0.005417241241854317  1.0000
  Zr  Zr15      1.0  0.4959670647655418  0.0029484852951791618  0.001204255108327527  1.0000
  Zr  Zr16      1.0  0.5027479939737954  0.5038092364077185  0.502898483248165  1.0000
  O   O1        1.0  0.6022709650724768  0.30564475803723246  0.7200268517241284  1.0000
  O   O2        1.0  0.893572019585815  0.6950443923036352  0.21791929623891385  1.0000
  O   O3        1.0  0.3934940409308175  0.8088807678399793  0.7767732070856314  1.0000
  O   O4        1.0  0.1041827738664437  0.1918756550387703  0.27629753524328987  1.0000
  O   O5        1.0  0.29767065811564536  0.711789836333714  0.6021257785243432  1.0000
  O   O6        1.0  0.6927941118297185  0.2117646325258866  0.904526195507432  1.0000
  O   O7        1.0  0.8060596894511347  0.7920120233945632  0.4006625312285305  1.0000
  O   O8        1.0  0.20004624848276356  0.29204073449242773  0.10660090116611613  1.0000
  O   O9        1.0  0.7131091709184949  0.6063914384974086  0.3120328343962181  1.0000
  O   O10       1.0  0.2081576897564965  0.8958410965660539  0.6946804905780157  1.0000
  O   O11       1.0  0.7866190006678809  0.39363385416900926  0.8135296881984215  1.0000
  O   O12       1.0  0.2885966526758439  0.10507801127083652  0.19868799979140142  1.0000
  O   O13       1.0  0.9015610055730705  0.19366937588003744  0.785744331034583  1.0000
  O   O14       1.0  0.590475291268926  0.8048891518257076  0.2864126344271062  1.0000
  O   O15       1.0  0.09649471417114318  0.6932581189388746  0.7160190639900562  1.0000
  O   O16       1.0  0.4073760954235667  0.30613897323212796  0.2210700517223194  1.0000
  O   O17       1.0  0.19012918417802052  0.7748796876681753  0.9047260543355837  1.0000
  O   O18       1.0  0.7987988459615708  0.27511045993210054  0.6035307807963033  1.0000
  O   O19       1.0  0.6958994071280542  0.7280660404125462  0.10430620577176335  1.0000
  O   O20       1.0  0.3107199050405017  0.2289808410833802  0.40670640123574076  1.0000
  O   O21       1.0  0.7772192028230036  0.9060772539832272  0.2026529487129263  1.0000
  O   O22       1.0  0.27835261518158627  0.5975641412813163  0.8051292829262563  1.0000
  O   O23       1.0  0.7202572210503783  0.09400183226781765  0.7051592575531753  1.0000
  O   O24       1.0  0.21756665686780513  0.40235490219224335  0.30729988466149105  1.0000
  O   O25       1.0  0.3522951455526426  0.46841233647073993  0.05725947502324056  1.0000
  O   O26       1.0  0.6436528936987087  0.9663925376084969  0.44665872624889186  1.0000
  O   O27       1.0  0.14352005108520582  0.5252539243974251  0.5603587269372409  1.0000
  O   O28       1.0  0.8540527438671163  0.024846465797866785  0.9436192125617915  1.0000
  O   O29       1.0  0.04753616734231886  0.3506964096578411  0.46324298787658585  1.0000
  O   O30       1.0  0.44276563096124444  0.6529060534478878  0.9632910136833573  1.0000
  O   O31       1.0  0.5560318931339941  0.14916985782375597  0.5435951158497685  1.0000
  O   O32       1.0  0.9499843591300368  0.8550979306160339  0.0436624562002087  1.0000
  O   O33       1.0  0.4631771094102788  0.06055003239182938  0.3579011665469712  1.0000
  O   O34       1.0  0.9581982151692804  0.44308345466934496  0.6474550064799152  1.0000
  O   O35       1.0  0.5365737340482134  0.5620006903457907  0.14517206505325203  1.0000
  O   O36       1.0  0.038450442962949014  0.9471595940806455  0.8566442334257993  1.0000
  O   O37       1.0  0.651615635829268  0.5339473634257844  0.9452433163892916  1.0000
  O   O38       1.0  0.3404915779575073  0.034870881846442874  0.5564563456096321  1.0000
  O   O39       1.0  0.8463978712846366  0.46453181200603355  0.4448758562631836  1.0000
  O   O40       1.0  0.15729882122938885  0.969488060597317  0.057844313647462293  1.0000
  O   O41       1.0  0.9401220616656921  0.6531385930255672  0.5264292462416315  1.0000
  O   O42       1.0  0.5487351729199265  0.3519637069038683  0.026613071455646387  1.0000
  O   O43       1.0  0.4459967467786603  0.8528051378381403  0.479581333901061  1.0000
  O   O44       1.0  0.06067145800599398  0.15509621073512442  0.9805521012060301  1.0000
  O   O45       1.0  0.5272637647244345  0.9511391417255438  0.6577082628119383  1.0000
  O   O46       1.0  0.028457505328038746  0.5536416120750797  0.3491368565432579  1.0000
  O   O47       1.0  0.47016140282097113  0.45361913588787744  0.8454938060466081  1.0000
  O   O48       1.0  0.9674535730725231  0.055851888235898775  0.15396851554868157  1.0000
  O   O49       1.0  0.10227733470993643  0.8056437145591291  0.2200220859329939  1.0000
  O   O50       1.0  0.3935704329637927  0.19503841747714548  0.7179248004292478  1.0000
  O   O51       1.0  0.8934931074829294  0.3088729757489784  0.2767775785234063  1.0000
  O   O52       1.0  0.6041846009961968  0.6918693136851636  0.7763041821659504  1.0000
  O   O53       1.0  0.7976720021578032  0.21178451378219032  0.10212544671468905  1.0000
  O   O54       1.0  0.19279951714187654  0.7117683760250757  0.40452900938378566  1.0000
  O   O55       1.0  0.3060609913721141  0.29201010208243494  0.9006611136172981  1.0000
  O   O56       1.0  0.7000459058255144  0.792050285420955  0.6066076435361614  1.0000
  O   O57       1.0  0.21310575190863587  0.1063868772869475  0.8120306209924234  1.0000
  O   O58       1.0  0.7081547866478745  0.3958404170452156  0.1946841285861335  1.0000
  O   O59       1.0  0.28660687669730023  0.8936268843166597  0.3135413069251427  1.0000
  O   O60       1.0  0.7886055351043164  0.6050743902570173  0.6986808981112158  1.0000
  O   O61       1.0  0.4015562282915461  0.6936722628040933  0.28575405860876724  1.0000
  O   O62       1.0  0.09047391616210504  0.30488167061412424  0.7864049857713387  1.0000
  O   O63       1.0  0.596485100133857  0.19325894837462104  0.2160237836203057  1.0000
  O   O64       1.0  0.907381182903253  0.8061423543591725  0.7210664248809254  1.0000
  O   O65       1.0  0.6901207554129148  0.27488459396016224  0.4047312315573886  1.0000
  O   O66       1.0  0.2987992021874305  0.7751117457068909  0.1035427002724047  1.0000
  O   O67       1.0  0.19589819820117152  0.22806394369864244  0.6043065382120554  1.0000
  O   O68       1.0  0.810720374295602  0.7289771761375589  0.9067011867364402  1.0000
  O   O69       1.0  0.2772164547389184  0.40607894416308765  0.7026527334761781  1.0000
  O   O70       1.0  0.7783519370437805  0.0975682977320829  0.30512850259825214  1.0000
  O   O71       1.0  0.2202722621921713  0.5940120807713839  0.20515747105488882  1.0000
  O   O72       1.0  0.7175559833915671  0.9023609656371024  0.8073100468686161  1.0000
  O   O73       1.0  0.8522916034856824  0.9684271405252085  0.557259898026824  1.0000
  O   O74       1.0  0.1436642186654452  0.4663808307195696  0.9466601319769036  1.0000
  O   O75       1.0  0.6435171940344768  0.025255670615938374  0.060355988732681214  1.0000
  O   O76       1.0  0.35406126459853865  0.5248514749923796  0.44361719987117715  1.0000
  O   O77       1.0  0.5475374220406555  0.8507006245332803  0.9632321428114368  1.0000
  O   O78       1.0  0.9427681882965392  0.15290741876000843  0.4632925655944406  1.0000
  O   O79       1.0  0.0560319877556879  0.6491646130969786  0.04358933695957769  1.0000
  O   O80       1.0  0.44997164236435544  0.35510205358647723  0.5436622695663372  1.0000
  O   O81       1.0  0.9631784165235653  0.5605613006079515  0.8578936955226428  1.0000
  O   O82       1.0  0.4581980363561598  0.9430760806373157  0.1474639478925602  1.0000
  O   O83       1.0  0.03658324798777071  0.06200778152409839  0.6451651713267211  1.0000
  O   O84       1.0  0.5384507108937155  0.44715576885194663  0.35663212593994154  1.0000
  O   O85       1.0  0.15162505704997833  0.03394828941406336  0.44524946873283183  1.0000
  O   O86       1.0  0.8404882192958365  0.5348738028893092  0.05645293863831487  1.0000
  O   O87       1.0  0.3463913527902832  0.9645342160537277  0.9448720492447967  1.0000
  O   O88       1.0  0.6572959452516959  0.46948941378491554  0.5578423410131529  1.0000
  O   O89       1.0  0.4401247687631464  0.15314093305290438  0.026436381412652952  1.0000
  O   O90       1.0  0.04875131405769858  0.8519624173227227  0.5266156729194591  1.0000
  O   O91       1.0  0.9460041892398235  0.3528154690597868  0.9795870465368741  1.0000
  O   O92       1.0  0.5606737701121682  0.6550925669003063  0.48055776834974345  1.0000
  O   O93       1.0  0.02726378710750718  0.45113209376713  0.15769806621245122  1.0000
  O   O94       1.0  0.5284577115744886  0.053640499048602616  0.8491342168024271  1.0000
  O   O95       1.0  0.9701674091194743  0.9536215864280941  0.34550622275933723  1.0000
  O   O96       1.0  0.46745529569071476  0.5558491284169237  0.653972483298545  1.0000
